  0
SECTION
  2
ENTITIES
999
DXF created from EnergyPlus
999
Program Version,EnergyPlus-Linux-64 8.1.0.009, YMD=2015.05.11 16:22
999
Polygon Action,ThickPolyline
999
Color Scheme,Default
999
Text - True North
  0
TEXT
  8
1
  6
Continuous
 62
  3
 10
      -11.00000
 20
      -27.47851
 30
        0.10000
 40
 .25
  1
True North
 41
 0.0
  7
MONOTXT
210
0.0
220
0.0
230
1.0
999
Text - Building Title
  0
TEXT
  8
1
  6
Continuous
 62
  3
 10
      -14.00000
 20
      -31.47851
 30
        0.10000
 40
 .4
  1
Building - LBuildingAppGPar
 41
 0.0
  7
MONOTXT
210
0.0
220
0.0
230
1.0
999
North Arrow Stem
  0
3DFACE
  8
1
 62
  3
 10
      -10.00000
 20
      -27.47851
 30
        0.10000
 11
      -10.00000
 21
      -27.47851
 31
        0.00000
 12
      -10.00000
 22
      -30.47851
 32
        0.00000
 13
      -10.00000
 23
      -30.47851
 33
        0.10000
999
North Arrow Head 1
  0
3DFACE
  8
1
 62
  3
 10
      -10.00000
 20
      -27.47851
 30
        0.10000
 11
      -10.00000
 21
      -27.47851
 31
        0.00000
 12
      -10.50000
 22
      -28.34454
 32
        0.00000
 13
      -10.50000
 23
      -28.34454
 33
        0.10000
999
North Arrow Head 2
  0
3DFACE
  8
1
 62
  3
 10
      -10.00000
 20
      -27.47851
 30
        0.10000
 11
      -10.00000
 21
      -27.47851
 31
        0.00000
 12
       -9.50000
 22
      -28.34454
 32
        0.00000
 13
       -9.50000
 23
      -28.34454
 33
        0.10000
999
North Arrow Side 1
  0
3DFACE
  8
1
 62
  3
 10
      -10.50000
 20
      -25.97851
 30
        0.10000
 11
      -10.50000
 21
      -25.97851
 31
        0.00000
 12
      -10.50000
 22
      -26.97851
 32
        0.00000
 13
      -10.50000
 23
      -26.97851
 33
        0.10000
999
North Arrow Side 2
  0
3DFACE
  8
1
 62
  3
 10
      -10.50000
 20
      -25.97851
 30
        0.10000
 11
      -10.50000
 21
      -25.97851
 31
        0.00000
 12
       -9.50000
 22
      -26.97851
 32
        0.00000
 13
       -9.50000
 23
      -26.97851
 33
        0.10000
999
North Arrow Side 3
  0
3DFACE
  8
1
 62
  3
 10
       -9.50000
 20
      -25.97851
 30
        0.10000
 11
       -9.50000
 21
      -25.97851
 31
        0.00000
 12
       -9.50000
 22
      -26.97851
 32
        0.00000
 13
       -9.50000
 23
      -26.97851
 33
        0.10000
999
Zone Names
999
Zone=1:MAIN_ZONE_A_B_G_L
999
Zone=2:MAIN_ZONE_B_C_H_G
999
Zone=3:MAIN_ZONE_C_D_I_H
999
Zone=4:MAIN_ZONE_D_E_J_I
999
Zone=5:MAIN_ZONE_E_F_K_J
999
Zone=6:MAIN_ZONE_L_K_F_A
999
Zone=7:MAIN_ZONE_G_H_I_L
999
Zone=8:MAIN_ZONE_I_J_K_L
999
MAIN_ZONE_A_B_G_L:MAIN_EXTWALL_A_B
  0
3DFACE
  8
MAIN_ZONE_A_B_G_L
 62
 43
 10
       48.76562
 20
        0.00000
 30
        3.04785
 11
       48.76562
 21
        0.00000
 31
        0.00000
 12
        0.00000
 22
        0.00000
 32
        0.00000
 13
        0.00000
 23
        0.00000
 33
        3.04785
999
MAIN_ZONE_A_B_G_L:MAIN_WINDOW_A_B_1_1
  0
3DFACE
  8
MAIN_ZONE_A_B_G_L
 62
143
 10
        5.52000
 20
        0.00000
 30
        2.28589
 11
        5.52000
 21
        0.00000
 31
        0.76196
 12
        4.60564
 22
        0.00000
 32
        0.76196
 13
        4.60564
 23
        0.00000
 33
        2.28589
999
MAIN_ZONE_A_B_G_L:MAIN_WINDOW_A_B_1_2
  0
3DFACE
  8
MAIN_ZONE_A_B_G_L
 62
143
 10
       11.04000
 20
        0.00000
 30
        2.28589
 11
       11.04000
 21
        0.00000
 31
        0.76196
 12
       10.12564
 22
        0.00000
 32
        0.76196
 13
       10.12564
 23
        0.00000
 33
        2.28589
999
MAIN_ZONE_A_B_G_L:MAIN_WINDOW_A_B_1_3
  0
3DFACE
  8
MAIN_ZONE_A_B_G_L
 62
143
 10
       16.55999
 20
        0.00000
 30
        2.28589
 11
       16.55999
 21
        0.00000
 31
        0.76196
 12
       15.64564
 22
        0.00000
 32
        0.76196
 13
       15.64564
 23
        0.00000
 33
        2.28589
999
MAIN_ZONE_A_B_G_L:MAIN_WINDOW_A_B_1_4
  0
3DFACE
  8
MAIN_ZONE_A_B_G_L
 62
143
 10
       22.07999
 20
        0.00000
 30
        2.28589
 11
       22.07999
 21
        0.00000
 31
        0.76196
 12
       21.16564
 22
        0.00000
 32
        0.76196
 13
       21.16564
 23
        0.00000
 33
        2.28589
999
MAIN_ZONE_A_B_G_L:MAIN_WINDOW_A_B_1_5
  0
3DFACE
  8
MAIN_ZONE_A_B_G_L
 62
143
 10
       27.59999
 20
        0.00000
 30
        2.28589
 11
       27.59999
 21
        0.00000
 31
        0.76196
 12
       26.68563
 22
        0.00000
 32
        0.76196
 13
       26.68563
 23
        0.00000
 33
        2.28589
999
MAIN_ZONE_A_B_G_L:MAIN_WINDOW_A_B_1_6
  0
3DFACE
  8
MAIN_ZONE_A_B_G_L
 62
143
 10
       33.11999
 20
        0.00000
 30
        2.28589
 11
       33.11999
 21
        0.00000
 31
        0.76196
 12
       32.20564
 22
        0.00000
 32
        0.76196
 13
       32.20564
 23
        0.00000
 33
        2.28589
999
MAIN_ZONE_A_B_G_L:MAIN_WINDOW_A_B_1_7
  0
3DFACE
  8
MAIN_ZONE_A_B_G_L
 62
143
 10
       38.63999
 20
        0.00000
 30
        2.28589
 11
       38.63999
 21
        0.00000
 31
        0.76196
 12
       37.72563
 22
        0.00000
 32
        0.76196
 13
       37.72563
 23
        0.00000
 33
        2.28589
999
MAIN_ZONE_A_B_G_L:MAIN_WINDOW_A_B_1_8
  0
3DFACE
  8
MAIN_ZONE_A_B_G_L
 62
143
 10
       44.15998
 20
        0.00000
 30
        2.28589
 11
       44.15998
 21
        0.00000
 31
        0.76196
 12
       43.24563
 22
        0.00000
 32
        0.76196
 13
       43.24563
 23
        0.00000
 33
        2.28589
999
MAIN_ZONE_A_B_G_L:MAIN_INTWALL_L_G
  0
3DFACE
  8
MAIN_ZONE_A_B_G_L
 62
 43
 10
       44.19384
 20
       -4.57178
 30
        3.04785
 11
       44.19384
 21
       -4.57178
 31
        0.00000
 12
        4.57178
 22
       -4.57178
 32
        0.00000
 13
        4.57178
 23
       -4.57178
 33
        3.04785
999
MAIN_ZONE_A_B_G_L:FOUNDATION_MAIN_ZONE_A_B_G_L
  0
3DFACE
  8
MAIN_ZONE_A_B_G_L
 62
  8
 10
        0.00000
 20
        0.00000
 30
        0.00000
 11
       48.76562
 21
        0.00000
 31
        0.00000
 12
       44.19384
 22
       -4.57178
 32
        0.00000
 13
        4.57178
 23
       -4.57178
 33
        0.00000
999
MAIN_ZONE_A_B_G_L:ROOFABOVE_MAIN_ZONE_A_B_G_L
  0
3DFACE
  8
MAIN_ZONE_A_B_G_L
 62
 15
 10
        4.57178
 20
       -4.57178
 30
        3.04785
 11
       44.19384
 21
       -4.57178
 31
        3.04785
 12
       48.76562
 22
        0.00000
 32
        3.04785
 13
        0.00000
 23
        0.00000
 33
        3.04785
999
MAIN_ZONE_B_C_H_G:MAIN_EXTWALL_B_C
  0
3DFACE
  8
MAIN_ZONE_B_C_H_G
 62
 43
 10
       48.76562
 20
      -15.23926
 30
        3.04785
 11
       48.76562
 21
      -15.23926
 31
        0.00000
 12
       48.76562
 22
        0.00000
 32
        0.00000
 13
       48.76562
 23
        0.00000
 33
        3.04785
999
MAIN_ZONE_B_C_H_G:MAIN_WINDOW_B_C_1_1
  0
3DFACE
  8
MAIN_ZONE_B_C_H_G
 62
143
 10
       48.76562
 20
       -4.03840
 30
        2.28589
 11
       48.76562
 21
       -4.03840
 31
        0.76196
 12
       48.76562
 22
       -3.12405
 32
        0.76196
 13
       48.76562
 23
       -3.12405
 33
        2.28589
999
MAIN_ZONE_B_C_H_G:MAIN_WINDOW_B_C_1_2
  0
3DFACE
  8
MAIN_ZONE_B_C_H_G
 62
143
 10
       48.76562
 20
       -8.07681
 30
        2.28589
 11
       48.76562
 21
       -8.07681
 31
        0.76196
 12
       48.76562
 22
       -7.16245
 32
        0.76196
 13
       48.76562
 23
       -7.16245
 33
        2.28589
999
MAIN_ZONE_B_C_H_G:MAIN_WINDOW_B_C_1_3
  0
3DFACE
  8
MAIN_ZONE_B_C_H_G
 62
143
 10
       48.76562
 20
      -12.11521
 30
        2.28589
 11
       48.76562
 21
      -12.11521
 31
        0.76196
 12
       48.76562
 22
      -11.20085
 32
        0.76196
 13
       48.76562
 23
      -11.20085
 33
        2.28589
999
MAIN_ZONE_B_C_H_G:MAIN_INTWALL_G_H
  0
3DFACE
  8
MAIN_ZONE_B_C_H_G
 62
 43
 10
       44.19384
 20
      -10.66748
 30
        3.04785
 11
       44.19384
 21
      -10.66748
 31
        0.00000
 12
       44.19384
 22
       -4.57178
 32
        0.00000
 13
       44.19384
 23
       -4.57178
 33
        3.04785
999
MAIN_ZONE_B_C_H_G:FOUNDATION_MAIN_ZONE_B_C_H_G
  0
3DFACE
  8
MAIN_ZONE_B_C_H_G
 62
  8
 10
       48.76562
 20
        0.00000
 30
        0.00000
 11
       48.76562
 21
      -15.23926
 31
        0.00000
 12
       44.19384
 22
      -10.66748
 32
        0.00000
 13
       44.19384
 23
       -4.57178
 33
        0.00000
999
MAIN_ZONE_B_C_H_G:ROOFABOVE_MAIN_ZONE_B_C_H_G
  0
3DFACE
  8
MAIN_ZONE_B_C_H_G
 62
 15
 10
       44.19384
 20
       -4.57178
 30
        3.04785
 11
       44.19384
 21
      -10.66748
 31
        3.04785
 12
       48.76562
 22
      -15.23926
 32
        3.04785
 13
       48.76562
 23
        0.00000
 33
        3.04785
999
MAIN_ZONE_C_D_I_H:MAIN_EXTWALL_C_D
  0
3DFACE
  8
MAIN_ZONE_C_D_I_H
 62
 43
 10
       15.23926
 20
      -15.23926
 30
        3.04785
 11
       15.23926
 21
      -15.23926
 31
        0.00000
 12
       48.76562
 22
      -15.23926
 32
        0.00000
 13
       48.76562
 23
      -15.23926
 33
        3.04785
999
MAIN_ZONE_C_D_I_H:MAIN_WINDOW_C_D_1_1
  0
3DFACE
  8
MAIN_ZONE_C_D_I_H
 62
143
 10
       44.46053
 20
      -15.23926
 30
        2.28589
 11
       44.46053
 21
      -15.23926
 31
        0.76196
 12
       45.37489
 22
      -15.23926
 32
        0.76196
 13
       45.37489
 23
      -15.23926
 33
        2.28589
999
MAIN_ZONE_C_D_I_H:MAIN_WINDOW_C_D_1_2
  0
3DFACE
  8
MAIN_ZONE_C_D_I_H
 62
143
 10
       40.15544
 20
      -15.23926
 30
        2.28589
 11
       40.15544
 21
      -15.23926
 31
        0.76196
 12
       41.06980
 22
      -15.23926
 32
        0.76196
 13
       41.06980
 23
      -15.23926
 33
        2.28589
999
MAIN_ZONE_C_D_I_H:MAIN_WINDOW_C_D_1_3
  0
3DFACE
  8
MAIN_ZONE_C_D_I_H
 62
143
 10
       35.85035
 20
      -15.23926
 30
        2.28589
 11
       35.85035
 21
      -15.23926
 31
        0.76196
 12
       36.76471
 22
      -15.23926
 32
        0.76196
 13
       36.76471
 23
      -15.23926
 33
        2.28589
999
MAIN_ZONE_C_D_I_H:MAIN_WINDOW_C_D_1_4
  0
3DFACE
  8
MAIN_ZONE_C_D_I_H
 62
143
 10
       31.54526
 20
      -15.23926
 30
        2.28589
 11
       31.54526
 21
      -15.23926
 31
        0.76196
 12
       32.45962
 22
      -15.23926
 32
        0.76196
 13
       32.45962
 23
      -15.23926
 33
        2.28589
999
MAIN_ZONE_C_D_I_H:MAIN_WINDOW_C_D_1_5
  0
3DFACE
  8
MAIN_ZONE_C_D_I_H
 62
143
 10
       27.24017
 20
      -15.23926
 30
        2.28589
 11
       27.24017
 21
      -15.23926
 31
        0.76196
 12
       28.15453
 22
      -15.23926
 32
        0.76196
 13
       28.15453
 23
      -15.23926
 33
        2.28589
999
MAIN_ZONE_C_D_I_H:MAIN_WINDOW_C_D_1_6
  0
3DFACE
  8
MAIN_ZONE_C_D_I_H
 62
143
 10
       22.93508
 20
      -15.23926
 30
        2.28589
 11
       22.93508
 21
      -15.23926
 31
        0.76196
 12
       23.84944
 22
      -15.23926
 32
        0.76196
 13
       23.84944
 23
      -15.23926
 33
        2.28589
999
MAIN_ZONE_C_D_I_H:MAIN_WINDOW_C_D_1_7
  0
3DFACE
  8
MAIN_ZONE_C_D_I_H
 62
143
 10
       18.62999
 20
      -15.23926
 30
        2.28589
 11
       18.62999
 21
      -15.23926
 31
        0.76196
 12
       19.54435
 22
      -15.23926
 32
        0.76196
 13
       19.54435
 23
      -15.23926
 33
        2.28589
999
MAIN_ZONE_C_D_I_H:MAIN_INTWALL_H_I
  0
3DFACE
  8
MAIN_ZONE_C_D_I_H
 62
 43
 10
       10.66748
 20
      -10.66748
 30
        3.04785
 11
       10.66748
 21
      -10.66748
 31
        0.00000
 12
       44.19384
 22
      -10.66748
 32
        0.00000
 13
       44.19384
 23
      -10.66748
 33
        3.04785
999
MAIN_ZONE_C_D_I_H:FOUNDATION_MAIN_ZONE_C_D_I_H
  0
3DFACE
  8
MAIN_ZONE_C_D_I_H
 62
  8
 10
       48.76562
 20
      -15.23926
 30
        0.00000
 11
       15.23926
 21
      -15.23926
 31
        0.00000
 12
       10.66748
 22
      -10.66748
 32
        0.00000
 13
       44.19384
 23
      -10.66748
 33
        0.00000
999
MAIN_ZONE_C_D_I_H:ROOFABOVE_MAIN_ZONE_C_D_I_H
  0
3DFACE
  8
MAIN_ZONE_C_D_I_H
 62
 15
 10
       44.19384
 20
      -10.66748
 30
        3.04785
 11
       10.66748
 21
      -10.66748
 31
        3.04785
 12
       15.23926
 22
      -15.23926
 32
        3.04785
 13
       48.76562
 23
      -15.23926
 33
        3.04785
999
MAIN_ZONE_D_E_J_I:MAIN_EXTWALL_D_E
  0
3DFACE
  8
MAIN_ZONE_D_E_J_I
 62
 43
 10
       15.23926
 20
      -30.47851
 30
        3.04785
 11
       15.23926
 21
      -30.47851
 31
        0.00000
 12
       15.23926
 22
      -15.23926
 32
        0.00000
 13
       15.23926
 23
      -15.23926
 33
        3.04785
999
MAIN_ZONE_D_E_J_I:MAIN_WINDOW_D_E_1_1
  0
3DFACE
  8
MAIN_ZONE_D_E_J_I
 62
143
 10
       15.23926
 20
      -19.27766
 30
        2.28589
 11
       15.23926
 21
      -19.27766
 31
        0.76196
 12
       15.23926
 22
      -18.36330
 32
        0.76196
 13
       15.23926
 23
      -18.36330
 33
        2.28589
999
MAIN_ZONE_D_E_J_I:MAIN_WINDOW_D_E_1_2
  0
3DFACE
  8
MAIN_ZONE_D_E_J_I
 62
143
 10
       15.23926
 20
      -23.31606
 30
        2.28589
 11
       15.23926
 21
      -23.31606
 31
        0.76196
 12
       15.23926
 22
      -22.40171
 32
        0.76196
 13
       15.23926
 23
      -22.40171
 33
        2.28589
999
MAIN_ZONE_D_E_J_I:MAIN_WINDOW_D_E_1_3
  0
3DFACE
  8
MAIN_ZONE_D_E_J_I
 62
143
 10
       15.23926
 20
      -27.35447
 30
        2.28589
 11
       15.23926
 21
      -27.35447
 31
        0.76196
 12
       15.23926
 22
      -26.44011
 32
        0.76196
 13
       15.23926
 23
      -26.44011
 33
        2.28589
999
MAIN_ZONE_D_E_J_I:MAIN_INTWALL_I_J
  0
3DFACE
  8
MAIN_ZONE_D_E_J_I
 62
 43
 10
       10.66748
 20
      -25.90674
 30
        3.04785
 11
       10.66748
 21
      -25.90674
 31
        0.00000
 12
       10.66748
 22
      -10.66748
 32
        0.00000
 13
       10.66748
 23
      -10.66748
 33
        3.04785
999
MAIN_ZONE_D_E_J_I:FOUNDATION_MAIN_ZONE_D_E_J_I
  0
3DFACE
  8
MAIN_ZONE_D_E_J_I
 62
  8
 10
       15.23926
 20
      -15.23926
 30
        0.00000
 11
       15.23926
 21
      -30.47851
 31
        0.00000
 12
       10.66748
 22
      -25.90674
 32
        0.00000
 13
       10.66748
 23
      -10.66748
 33
        0.00000
999
MAIN_ZONE_D_E_J_I:ROOFABOVE_MAIN_ZONE_D_E_J_I
  0
3DFACE
  8
MAIN_ZONE_D_E_J_I
 62
 15
 10
       10.66748
 20
      -10.66748
 30
        3.04785
 11
       10.66748
 21
      -25.90674
 31
        3.04785
 12
       15.23926
 22
      -30.47851
 32
        3.04785
 13
       15.23926
 23
      -15.23926
 33
        3.04785
999
MAIN_ZONE_E_F_K_J:MAIN_EXTWALL_E_F
  0
3DFACE
  8
MAIN_ZONE_E_F_K_J
 62
 43
 10
        0.00000
 20
      -30.47851
 30
        3.04785
 11
        0.00000
 21
      -30.47851
 31
        0.00000
 12
       15.23926
 22
      -30.47851
 32
        0.00000
 13
       15.23926
 23
      -30.47851
 33
        3.04785
999
MAIN_ZONE_E_F_K_J:MAIN_WINDOW_E_F_1_1
  0
3DFACE
  8
MAIN_ZONE_E_F_K_J
 62
143
 10
       12.00853
 20
      -30.47851
 30
        2.28589
 11
       12.00853
 21
      -30.47851
 31
        0.76196
 12
       12.92289
 22
      -30.47851
 32
        0.76196
 13
       12.92289
 23
      -30.47851
 33
        2.28589
999
MAIN_ZONE_E_F_K_J:MAIN_WINDOW_E_F_1_2
  0
3DFACE
  8
MAIN_ZONE_E_F_K_J
 62
143
 10
        8.77781
 20
      -30.47851
 30
        2.28589
 11
        8.77781
 21
      -30.47851
 31
        0.76196
 12
        9.69217
 22
      -30.47851
 32
        0.76196
 13
        9.69217
 23
      -30.47851
 33
        2.28589
999
MAIN_ZONE_E_F_K_J:MAIN_WINDOW_E_F_1_3
  0
3DFACE
  8
MAIN_ZONE_E_F_K_J
 62
143
 10
        5.54709
 20
      -30.47851
 30
        2.28589
 11
        5.54709
 21
      -30.47851
 31
        0.76196
 12
        6.46145
 22
      -30.47851
 32
        0.76196
 13
        6.46145
 23
      -30.47851
 33
        2.28589
999
MAIN_ZONE_E_F_K_J:MAIN_WINDOW_E_F_1_4
  0
3DFACE
  8
MAIN_ZONE_E_F_K_J
 62
143
 10
        2.31637
 20
      -30.47851
 30
        2.28589
 11
        2.31637
 21
      -30.47851
 31
        0.76196
 12
        3.23072
 22
      -30.47851
 32
        0.76196
 13
        3.23072
 23
      -30.47851
 33
        2.28589
999
MAIN_ZONE_E_F_K_J:MAIN_INTWALL_J_K
  0
3DFACE
  8
MAIN_ZONE_E_F_K_J
 62
 43
 10
        4.57178
 20
      -25.90674
 30
        3.04785
 11
        4.57178
 21
      -25.90674
 31
        0.00000
 12
       10.66748
 22
      -25.90674
 32
        0.00000
 13
       10.66748
 23
      -25.90674
 33
        3.04785
999
MAIN_ZONE_E_F_K_J:FOUNDATION_MAIN_ZONE_E_F_K_J
  0
3DFACE
  8
MAIN_ZONE_E_F_K_J
 62
  8
 10
       15.23926
 20
      -30.47851
 30
        0.00000
 11
        0.00000
 21
      -30.47851
 31
        0.00000
 12
        4.57178
 22
      -25.90674
 32
        0.00000
 13
       10.66748
 23
      -25.90674
 33
        0.00000
999
MAIN_ZONE_E_F_K_J:ROOFABOVE_MAIN_ZONE_E_F_K_J
  0
3DFACE
  8
MAIN_ZONE_E_F_K_J
 62
 15
 10
       10.66748
 20
      -25.90674
 30
        3.04785
 11
        4.57178
 21
      -25.90674
 31
        3.04785
 12
        0.00000
 22
      -30.47851
 32
        3.04785
 13
       15.23926
 23
      -30.47851
 33
        3.04785
999
MAIN_ZONE_L_K_F_A:MAIN_EXTWALL_F_A
  0
3DFACE
  8
MAIN_ZONE_L_K_F_A
 62
 43
 10
        0.00000
 20
        0.00000
 30
        3.04785
 11
        0.00000
 21
        0.00000
 31
        0.00000
 12
        0.00000
 22
      -30.47851
 32
        0.00000
 13
        0.00000
 23
      -30.47851
 33
        3.04785
999
MAIN_ZONE_L_K_F_A:MAIN_WINDOW_F_A_1_1
  0
3DFACE
  8
MAIN_ZONE_L_K_F_A
 62
143
 10
        0.00000
 20
      -20.01423
 30
        2.28589
 11
        0.00000
 21
      -20.01423
 31
        0.76196
 12
        0.00000
 22
      -20.92858
 32
        0.76196
 13
        0.00000
 23
      -20.92858
 33
        2.28589
999
MAIN_ZONE_L_K_F_A:MAIN_WINDOW_F_A_1_2
  0
3DFACE
  8
MAIN_ZONE_L_K_F_A
 62
143
 10
        0.00000
 20
       -9.54993
 30
        2.28589
 11
        0.00000
 21
       -9.54993
 31
        0.76196
 12
        0.00000
 22
      -10.46429
 32
        0.76196
 13
        0.00000
 23
      -10.46429
 33
        2.28589
999
MAIN_ZONE_L_K_F_A:MAIN_INTWALL_K_L
  0
3DFACE
  8
MAIN_ZONE_L_K_F_A
 62
 43
 10
        4.57178
 20
       -4.57178
 30
        3.04785
 11
        4.57178
 21
       -4.57178
 31
        0.00000
 12
        4.57178
 22
      -25.90674
 32
        0.00000
 13
        4.57178
 23
      -25.90674
 33
        3.04785
999
MAIN_ZONE_L_K_F_A:FOUNDATION_MAIN_ZONE_L_K_F_A
  0
3DFACE
  8
MAIN_ZONE_L_K_F_A
 62
  8
 10
        4.57178
 20
       -4.57178
 30
        0.00000
 11
        4.57178
 21
      -25.90674
 31
        0.00000
 12
        0.00000
 22
      -30.47851
 32
        0.00000
 13
        0.00000
 23
        0.00000
 33
        0.00000
999
MAIN_ZONE_L_K_F_A:ROOFABOVE_MAIN_ZONE_L_K_F_A
  0
3DFACE
  8
MAIN_ZONE_L_K_F_A
 62
 15
 10
        0.00000
 20
        0.00000
 30
        3.04785
 11
        0.00000
 21
      -30.47851
 31
        3.04785
 12
        4.57178
 22
      -25.90674
 32
        3.04785
 13
        4.57178
 23
       -4.57178
 33
        3.04785
999
MAIN_ZONE_G_H_I_L:MAIN_INTWALL_G_H_MIRROR
  0
3DFACE
  8
MAIN_ZONE_G_H_I_L
 62
 43
 10
       44.19384
 20
       -4.57178
 30
        3.04785
 11
       44.19384
 21
       -4.57178
 31
        0.00000
 12
       44.19384
 22
      -10.66748
 32
        0.00000
 13
       44.19384
 23
      -10.66748
 33
        3.04785
999
MAIN_ZONE_G_H_I_L:MAIN_INTWALL_H_I_MIRROR
  0
3DFACE
  8
MAIN_ZONE_G_H_I_L
 62
 43
 10
       44.19384
 20
      -10.66748
 30
        3.04785
 11
       44.19384
 21
      -10.66748
 31
        0.00000
 12
       10.66748
 22
      -10.66748
 32
        0.00000
 13
       10.66748
 23
      -10.66748
 33
        3.04785
999
MAIN_ZONE_G_H_I_L:MAIN_INTWALL_L_G_MIRROR
  0
3DFACE
  8
MAIN_ZONE_G_H_I_L
 62
 43
 10
        4.57178
 20
       -4.57178
 30
        3.04785
 11
        4.57178
 21
       -4.57178
 31
        0.00000
 12
       44.19384
 22
       -4.57178
 32
        0.00000
 13
       44.19384
 23
       -4.57178
 33
        3.04785
999
MAIN_ZONE_G_H_I_L:MAIN_INTWALL_L_I
  0
3DFACE
  8
MAIN_ZONE_G_H_I_L
 62
 43
 10
       10.66748
 20
      -10.66748
 30
        3.04785
 11
       10.66748
 21
      -10.66748
 31
        0.00000
 12
        4.57178
 22
       -4.57178
 32
        0.00000
 13
        4.57178
 23
       -4.57178
 33
        3.04785
999
MAIN_ZONE_G_H_I_L:FOUNDATION_MAIN_ZONE_G_H_I_L
  0
3DFACE
  8
MAIN_ZONE_G_H_I_L
 62
  8
 10
       44.19384
 20
       -4.57178
 30
        0.00000
 11
       44.19384
 21
      -10.66748
 31
        0.00000
 12
       10.66748
 22
      -10.66748
 32
        0.00000
 13
        4.57178
 23
       -4.57178
 33
        0.00000
999
MAIN_ZONE_G_H_I_L:ROOFABOVE_MAIN_ZONE_G_H_I_L
  0
3DFACE
  8
MAIN_ZONE_G_H_I_L
 62
 15
 10
        4.57178
 20
       -4.57178
 30
        3.04785
 11
       10.66748
 21
      -10.66748
 31
        3.04785
 12
       44.19384
 22
      -10.66748
 32
        3.04785
 13
       44.19384
 23
       -4.57178
 33
        3.04785
999
MAIN_ZONE_I_J_K_L:MAIN_INTWALL_I_J_MIRROR
  0
3DFACE
  8
MAIN_ZONE_I_J_K_L
 62
 43
 10
       10.66748
 20
      -10.66748
 30
        3.04785
 11
       10.66748
 21
      -10.66748
 31
        0.00000
 12
       10.66748
 22
      -25.90674
 32
        0.00000
 13
       10.66748
 23
      -25.90674
 33
        3.04785
999
MAIN_ZONE_I_J_K_L:MAIN_INTWALL_J_K_MIRROR
  0
3DFACE
  8
MAIN_ZONE_I_J_K_L
 62
 43
 10
       10.66748
 20
      -25.90674
 30
        3.04785
 11
       10.66748
 21
      -25.90674
 31
        0.00000
 12
        4.57178
 22
      -25.90674
 32
        0.00000
 13
        4.57178
 23
      -25.90674
 33
        3.04785
999
MAIN_ZONE_I_J_K_L:MAIN_INTWALL_K_L_MIRROR
  0
3DFACE
  8
MAIN_ZONE_I_J_K_L
 62
 43
 10
        4.57178
 20
      -25.90674
 30
        3.04785
 11
        4.57178
 21
      -25.90674
 31
        0.00000
 12
        4.57178
 22
       -4.57178
 32
        0.00000
 13
        4.57178
 23
       -4.57178
 33
        3.04785
999
MAIN_ZONE_I_J_K_L:MAIN_INTWALL_L_I_MIRROR
  0
3DFACE
  8
MAIN_ZONE_I_J_K_L
 62
 43
 10
        4.57178
 20
       -4.57178
 30
        3.04785
 11
        4.57178
 21
       -4.57178
 31
        0.00000
 12
       10.66748
 22
      -10.66748
 32
        0.00000
 13
       10.66748
 23
      -10.66748
 33
        3.04785
999
MAIN_ZONE_I_J_K_L:FOUNDATION_MAIN_ZONE_I_J_K_L
  0
3DFACE
  8
MAIN_ZONE_I_J_K_L
 62
  8
 10
       10.66748
 20
      -10.66748
 30
        0.00000
 11
       10.66748
 21
      -25.90674
 31
        0.00000
 12
        4.57178
 22
      -25.90674
 32
        0.00000
 13
        4.57178
 23
       -4.57178
 33
        0.00000
999
MAIN_ZONE_I_J_K_L:ROOFABOVE_MAIN_ZONE_I_J_K_L
  0
3DFACE
  8
MAIN_ZONE_I_J_K_L
 62
 15
 10
        4.57178
 20
       -4.57178
 30
        3.04785
 11
        4.57178
 21
      -25.90674
 31
        3.04785
 12
       10.66748
 22
      -25.90674
 32
        3.04785
 13
       10.66748
 23
      -10.66748
 33
        3.04785
  0
ENDSEC
  0
EOF
