  0
SECTION
  2
ENTITIES
999
DXF created from EnergyPlus
999
Program Version,EnergyPlus-Linux-64 8.1.0.009, YMD=2015.05.11 15:54
999
Polygon Action,ThickPolyline
999
Color Scheme,Default
999
Text - True North
  0
TEXT
  8
1
  6
Continuous
 62
  3
 10
      -11.00000
 20
        3.00000
 30
        0.10000
 40
 .25
  1
True North
 41
 0.0
  7
MONOTXT
210
0.0
220
0.0
230
1.0
999
Text - Building Title
  0
TEXT
  8
1
  6
Continuous
 62
  3
 10
      -14.00000
 20
       -1.00000
 30
        0.10000
 40
 .4
  1
Building - LBuildingAppGPar
 41
 0.0
  7
MONOTXT
210
0.0
220
0.0
230
1.0
999
North Arrow Stem
  0
3DFACE
  8
1
 62
  3
 10
      -10.00000
 20
        3.00000
 30
        0.10000
 11
      -10.00000
 21
        3.00000
 31
        0.00000
 12
      -10.00000
 22
        0.00000
 32
        0.00000
 13
      -10.00000
 23
        0.00000
 33
        0.10000
999
North Arrow Head 1
  0
3DFACE
  8
1
 62
  3
 10
      -10.00000
 20
        3.00000
 30
        0.10000
 11
      -10.00000
 21
        3.00000
 31
        0.00000
 12
      -10.50000
 22
        2.13397
 32
        0.00000
 13
      -10.50000
 23
        2.13397
 33
        0.10000
999
North Arrow Head 2
  0
3DFACE
  8
1
 62
  3
 10
      -10.00000
 20
        3.00000
 30
        0.10000
 11
      -10.00000
 21
        3.00000
 31
        0.00000
 12
       -9.50000
 22
        2.13397
 32
        0.00000
 13
       -9.50000
 23
        2.13397
 33
        0.10000
999
North Arrow Side 1
  0
3DFACE
  8
1
 62
  3
 10
      -10.50000
 20
        4.50000
 30
        0.10000
 11
      -10.50000
 21
        4.50000
 31
        0.00000
 12
      -10.50000
 22
        3.50000
 32
        0.00000
 13
      -10.50000
 23
        3.50000
 33
        0.10000
999
North Arrow Side 2
  0
3DFACE
  8
1
 62
  3
 10
      -10.50000
 20
        4.50000
 30
        0.10000
 11
      -10.50000
 21
        4.50000
 31
        0.00000
 12
       -9.50000
 22
        3.50000
 32
        0.00000
 13
       -9.50000
 23
        3.50000
 33
        0.10000
999
North Arrow Side 3
  0
3DFACE
  8
1
 62
  3
 10
       -9.50000
 20
        4.50000
 30
        0.10000
 11
       -9.50000
 21
        4.50000
 31
        0.00000
 12
       -9.50000
 22
        3.50000
 32
        0.00000
 13
       -9.50000
 23
        3.50000
 33
        0.10000
999
Zone Names
999
Zone=1:MAIN_ZONE_A_B_G_L
999
Zone=2:MAIN_ZONE_B_C_H_G
999
Zone=3:MAIN_ZONE_C_D_I_H
999
Zone=4:MAIN_ZONE_D_E_J_I
999
Zone=5:MAIN_ZONE_E_F_K_J
999
Zone=6:MAIN_ZONE_L_K_F_A
999
Zone=7:MAIN_ZONE_G_H_I_L
999
Zone=8:MAIN_ZONE_I_J_K_L
999
MAIN_ZONE_A_B_G_L:MAIN_EXTWALL_A_B
  0
3DFACE
  8
MAIN_ZONE_A_B_G_L
 62
 43
 10
        0.00000
 20
       48.76562
 30
        3.04785
 11
        0.00000
 21
       48.76562
 31
        0.00000
 12
        0.00000
 22
        0.00000
 32
        0.00000
 13
        0.00000
 23
        0.00000
 33
        3.04785
999
MAIN_ZONE_A_B_G_L:MAIN_WINDOW_A_B_1_1
  0
3DFACE
  8
MAIN_ZONE_A_B_G_L
 62
143
 10
        0.00000
 20
        5.52000
 30
        2.28589
 11
        0.00000
 21
        5.52000
 31
        0.76196
 12
        0.00000
 22
        4.60564
 32
        0.76196
 13
        0.00000
 23
        4.60564
 33
        2.28589
999
MAIN_ZONE_A_B_G_L:MAIN_WINDOW_A_B_1_2
  0
3DFACE
  8
MAIN_ZONE_A_B_G_L
 62
143
 10
        0.00000
 20
       11.04000
 30
        2.28589
 11
        0.00000
 21
       11.04000
 31
        0.76196
 12
        0.00000
 22
       10.12564
 32
        0.76196
 13
        0.00000
 23
       10.12564
 33
        2.28589
999
MAIN_ZONE_A_B_G_L:MAIN_WINDOW_A_B_1_3
  0
3DFACE
  8
MAIN_ZONE_A_B_G_L
 62
143
 10
        0.00000
 20
       16.55999
 30
        2.28589
 11
        0.00000
 21
       16.55999
 31
        0.76196
 12
        0.00000
 22
       15.64564
 32
        0.76196
 13
        0.00000
 23
       15.64564
 33
        2.28589
999
MAIN_ZONE_A_B_G_L:MAIN_WINDOW_A_B_1_4
  0
3DFACE
  8
MAIN_ZONE_A_B_G_L
 62
143
 10
        0.00000
 20
       22.07999
 30
        2.28589
 11
        0.00000
 21
       22.07999
 31
        0.76196
 12
        0.00000
 22
       21.16564
 32
        0.76196
 13
        0.00000
 23
       21.16564
 33
        2.28589
999
MAIN_ZONE_A_B_G_L:MAIN_WINDOW_A_B_1_5
  0
3DFACE
  8
MAIN_ZONE_A_B_G_L
 62
143
 10
        0.00000
 20
       27.59999
 30
        2.28589
 11
        0.00000
 21
       27.59999
 31
        0.76196
 12
        0.00000
 22
       26.68563
 32
        0.76196
 13
        0.00000
 23
       26.68563
 33
        2.28589
999
MAIN_ZONE_A_B_G_L:MAIN_WINDOW_A_B_1_6
  0
3DFACE
  8
MAIN_ZONE_A_B_G_L
 62
143
 10
        0.00000
 20
       33.11999
 30
        2.28589
 11
        0.00000
 21
       33.11999
 31
        0.76196
 12
        0.00000
 22
       32.20564
 32
        0.76196
 13
        0.00000
 23
       32.20564
 33
        2.28589
999
MAIN_ZONE_A_B_G_L:MAIN_WINDOW_A_B_1_7
  0
3DFACE
  8
MAIN_ZONE_A_B_G_L
 62
143
 10
        0.00000
 20
       38.63999
 30
        2.28589
 11
        0.00000
 21
       38.63999
 31
        0.76196
 12
        0.00000
 22
       37.72563
 32
        0.76196
 13
        0.00000
 23
       37.72563
 33
        2.28589
999
MAIN_ZONE_A_B_G_L:MAIN_WINDOW_A_B_1_8
  0
3DFACE
  8
MAIN_ZONE_A_B_G_L
 62
143
 10
        0.00000
 20
       44.15998
 30
        2.28589
 11
        0.00000
 21
       44.15998
 31
        0.76196
 12
        0.00000
 22
       43.24563
 32
        0.76196
 13
        0.00000
 23
       43.24563
 33
        2.28589
999
MAIN_ZONE_A_B_G_L:MAIN_INTWALL_L_G
  0
3DFACE
  8
MAIN_ZONE_A_B_G_L
 62
 43
 10
        4.57178
 20
       44.19384
 30
        3.04785
 11
        4.57178
 21
       44.19384
 31
        0.00000
 12
        4.57178
 22
        4.57178
 32
        0.00000
 13
        4.57178
 23
        4.57178
 33
        3.04785
999
MAIN_ZONE_A_B_G_L:FOUNDATION_MAIN_ZONE_A_B_G_L
  0
3DFACE
  8
MAIN_ZONE_A_B_G_L
 62
  8
 10
        0.00000
 20
        0.00000
 30
        0.00000
 11
        0.00000
 21
       48.76562
 31
        0.00000
 12
        4.57178
 22
       44.19384
 32
        0.00000
 13
        4.57178
 23
        4.57178
 33
        0.00000
999
MAIN_ZONE_A_B_G_L:ROOFABOVE_MAIN_ZONE_A_B_G_L
  0
3DFACE
  8
MAIN_ZONE_A_B_G_L
 62
 15
 10
        4.57178
 20
        4.57178
 30
        3.04785
 11
        4.57178
 21
       44.19384
 31
        3.04785
 12
        0.00000
 22
       48.76562
 32
        3.04785
 13
        0.00000
 23
        0.00000
 33
        3.04785
999
MAIN_ZONE_B_C_H_G:MAIN_EXTWALL_B_C
  0
3DFACE
  8
MAIN_ZONE_B_C_H_G
 62
 43
 10
       15.23926
 20
       48.76562
 30
        3.04785
 11
       15.23926
 21
       48.76562
 31
        0.00000
 12
        0.00000
 22
       48.76562
 32
        0.00000
 13
        0.00000
 23
       48.76562
 33
        3.04785
999
MAIN_ZONE_B_C_H_G:MAIN_WINDOW_B_C_1_1
  0
3DFACE
  8
MAIN_ZONE_B_C_H_G
 62
143
 10
        4.03840
 20
       48.76562
 30
        2.28589
 11
        4.03840
 21
       48.76562
 31
        0.76196
 12
        3.12405
 22
       48.76562
 32
        0.76196
 13
        3.12405
 23
       48.76562
 33
        2.28589
999
MAIN_ZONE_B_C_H_G:MAIN_WINDOW_B_C_1_2
  0
3DFACE
  8
MAIN_ZONE_B_C_H_G
 62
143
 10
        8.07681
 20
       48.76562
 30
        2.28589
 11
        8.07681
 21
       48.76562
 31
        0.76196
 12
        7.16245
 22
       48.76562
 32
        0.76196
 13
        7.16245
 23
       48.76562
 33
        2.28589
999
MAIN_ZONE_B_C_H_G:MAIN_WINDOW_B_C_1_3
  0
3DFACE
  8
MAIN_ZONE_B_C_H_G
 62
143
 10
       12.11521
 20
       48.76562
 30
        2.28589
 11
       12.11521
 21
       48.76562
 31
        0.76196
 12
       11.20085
 22
       48.76562
 32
        0.76196
 13
       11.20085
 23
       48.76562
 33
        2.28589
999
MAIN_ZONE_B_C_H_G:MAIN_INTWALL_G_H
  0
3DFACE
  8
MAIN_ZONE_B_C_H_G
 62
 43
 10
       10.66748
 20
       44.19384
 30
        3.04785
 11
       10.66748
 21
       44.19384
 31
        0.00000
 12
        4.57178
 22
       44.19384
 32
        0.00000
 13
        4.57178
 23
       44.19384
 33
        3.04785
999
MAIN_ZONE_B_C_H_G:FOUNDATION_MAIN_ZONE_B_C_H_G
  0
3DFACE
  8
MAIN_ZONE_B_C_H_G
 62
  8
 10
        0.00000
 20
       48.76562
 30
        0.00000
 11
       15.23926
 21
       48.76562
 31
        0.00000
 12
       10.66748
 22
       44.19384
 32
        0.00000
 13
        4.57178
 23
       44.19384
 33
        0.00000
999
MAIN_ZONE_B_C_H_G:ROOFABOVE_MAIN_ZONE_B_C_H_G
  0
3DFACE
  8
MAIN_ZONE_B_C_H_G
 62
 15
 10
        4.57178
 20
       44.19384
 30
        3.04785
 11
       10.66748
 21
       44.19384
 31
        3.04785
 12
       15.23926
 22
       48.76562
 32
        3.04785
 13
        0.00000
 23
       48.76562
 33
        3.04785
999
MAIN_ZONE_C_D_I_H:MAIN_EXTWALL_C_D
  0
3DFACE
  8
MAIN_ZONE_C_D_I_H
 62
 43
 10
       15.23926
 20
       15.23926
 30
        3.04785
 11
       15.23926
 21
       15.23926
 31
        0.00000
 12
       15.23926
 22
       48.76562
 32
        0.00000
 13
       15.23926
 23
       48.76562
 33
        3.04785
999
MAIN_ZONE_C_D_I_H:MAIN_WINDOW_C_D_1_1
  0
3DFACE
  8
MAIN_ZONE_C_D_I_H
 62
143
 10
       15.23926
 20
       44.46053
 30
        2.28589
 11
       15.23926
 21
       44.46053
 31
        0.76196
 12
       15.23926
 22
       45.37489
 32
        0.76196
 13
       15.23926
 23
       45.37489
 33
        2.28589
999
MAIN_ZONE_C_D_I_H:MAIN_WINDOW_C_D_1_2
  0
3DFACE
  8
MAIN_ZONE_C_D_I_H
 62
143
 10
       15.23926
 20
       40.15544
 30
        2.28589
 11
       15.23926
 21
       40.15544
 31
        0.76196
 12
       15.23926
 22
       41.06980
 32
        0.76196
 13
       15.23926
 23
       41.06980
 33
        2.28589
999
MAIN_ZONE_C_D_I_H:MAIN_WINDOW_C_D_1_3
  0
3DFACE
  8
MAIN_ZONE_C_D_I_H
 62
143
 10
       15.23926
 20
       35.85035
 30
        2.28589
 11
       15.23926
 21
       35.85035
 31
        0.76196
 12
       15.23926
 22
       36.76471
 32
        0.76196
 13
       15.23926
 23
       36.76471
 33
        2.28589
999
MAIN_ZONE_C_D_I_H:MAIN_WINDOW_C_D_1_4
  0
3DFACE
  8
MAIN_ZONE_C_D_I_H
 62
143
 10
       15.23926
 20
       31.54526
 30
        2.28589
 11
       15.23926
 21
       31.54526
 31
        0.76196
 12
       15.23926
 22
       32.45962
 32
        0.76196
 13
       15.23926
 23
       32.45962
 33
        2.28589
999
MAIN_ZONE_C_D_I_H:MAIN_WINDOW_C_D_1_5
  0
3DFACE
  8
MAIN_ZONE_C_D_I_H
 62
143
 10
       15.23926
 20
       27.24017
 30
        2.28589
 11
       15.23926
 21
       27.24017
 31
        0.76196
 12
       15.23926
 22
       28.15453
 32
        0.76196
 13
       15.23926
 23
       28.15453
 33
        2.28589
999
MAIN_ZONE_C_D_I_H:MAIN_WINDOW_C_D_1_6
  0
3DFACE
  8
MAIN_ZONE_C_D_I_H
 62
143
 10
       15.23926
 20
       22.93508
 30
        2.28589
 11
       15.23926
 21
       22.93508
 31
        0.76196
 12
       15.23926
 22
       23.84944
 32
        0.76196
 13
       15.23926
 23
       23.84944
 33
        2.28589
999
MAIN_ZONE_C_D_I_H:MAIN_WINDOW_C_D_1_7
  0
3DFACE
  8
MAIN_ZONE_C_D_I_H
 62
143
 10
       15.23926
 20
       18.62999
 30
        2.28589
 11
       15.23926
 21
       18.62999
 31
        0.76196
 12
       15.23926
 22
       19.54435
 32
        0.76196
 13
       15.23926
 23
       19.54435
 33
        2.28589
999
MAIN_ZONE_C_D_I_H:MAIN_INTWALL_H_I
  0
3DFACE
  8
MAIN_ZONE_C_D_I_H
 62
 43
 10
       10.66748
 20
       10.66748
 30
        3.04785
 11
       10.66748
 21
       10.66748
 31
        0.00000
 12
       10.66748
 22
       44.19384
 32
        0.00000
 13
       10.66748
 23
       44.19384
 33
        3.04785
999
MAIN_ZONE_C_D_I_H:FOUNDATION_MAIN_ZONE_C_D_I_H
  0
3DFACE
  8
MAIN_ZONE_C_D_I_H
 62
  8
 10
       15.23926
 20
       48.76562
 30
        0.00000
 11
       15.23926
 21
       15.23926
 31
        0.00000
 12
       10.66748
 22
       10.66748
 32
        0.00000
 13
       10.66748
 23
       44.19384
 33
        0.00000
999
MAIN_ZONE_C_D_I_H:ROOFABOVE_MAIN_ZONE_C_D_I_H
  0
3DFACE
  8
MAIN_ZONE_C_D_I_H
 62
 15
 10
       10.66748
 20
       44.19384
 30
        3.04785
 11
       10.66748
 21
       10.66748
 31
        3.04785
 12
       15.23926
 22
       15.23926
 32
        3.04785
 13
       15.23926
 23
       48.76562
 33
        3.04785
999
MAIN_ZONE_D_E_J_I:MAIN_EXTWALL_D_E
  0
3DFACE
  8
MAIN_ZONE_D_E_J_I
 62
 43
 10
       30.47851
 20
       15.23926
 30
        3.04785
 11
       30.47851
 21
       15.23926
 31
        0.00000
 12
       15.23926
 22
       15.23926
 32
        0.00000
 13
       15.23926
 23
       15.23926
 33
        3.04785
999
MAIN_ZONE_D_E_J_I:MAIN_WINDOW_D_E_1_1
  0
3DFACE
  8
MAIN_ZONE_D_E_J_I
 62
143
 10
       19.27766
 20
       15.23926
 30
        2.28589
 11
       19.27766
 21
       15.23926
 31
        0.76196
 12
       18.36330
 22
       15.23926
 32
        0.76196
 13
       18.36330
 23
       15.23926
 33
        2.28589
999
MAIN_ZONE_D_E_J_I:MAIN_WINDOW_D_E_1_2
  0
3DFACE
  8
MAIN_ZONE_D_E_J_I
 62
143
 10
       23.31606
 20
       15.23926
 30
        2.28589
 11
       23.31606
 21
       15.23926
 31
        0.76196
 12
       22.40171
 22
       15.23926
 32
        0.76196
 13
       22.40171
 23
       15.23926
 33
        2.28589
999
MAIN_ZONE_D_E_J_I:MAIN_WINDOW_D_E_1_3
  0
3DFACE
  8
MAIN_ZONE_D_E_J_I
 62
143
 10
       27.35447
 20
       15.23926
 30
        2.28589
 11
       27.35447
 21
       15.23926
 31
        0.76196
 12
       26.44011
 22
       15.23926
 32
        0.76196
 13
       26.44011
 23
       15.23926
 33
        2.28589
999
MAIN_ZONE_D_E_J_I:MAIN_INTWALL_I_J
  0
3DFACE
  8
MAIN_ZONE_D_E_J_I
 62
 43
 10
       25.90674
 20
       10.66748
 30
        3.04785
 11
       25.90674
 21
       10.66748
 31
        0.00000
 12
       10.66748
 22
       10.66748
 32
        0.00000
 13
       10.66748
 23
       10.66748
 33
        3.04785
999
MAIN_ZONE_D_E_J_I:FOUNDATION_MAIN_ZONE_D_E_J_I
  0
3DFACE
  8
MAIN_ZONE_D_E_J_I
 62
  8
 10
       15.23926
 20
       15.23926
 30
        0.00000
 11
       30.47851
 21
       15.23926
 31
        0.00000
 12
       25.90674
 22
       10.66748
 32
        0.00000
 13
       10.66748
 23
       10.66748
 33
        0.00000
999
MAIN_ZONE_D_E_J_I:ROOFABOVE_MAIN_ZONE_D_E_J_I
  0
3DFACE
  8
MAIN_ZONE_D_E_J_I
 62
 15
 10
       10.66748
 20
       10.66748
 30
        3.04785
 11
       25.90674
 21
       10.66748
 31
        3.04785
 12
       30.47851
 22
       15.23926
 32
        3.04785
 13
       15.23926
 23
       15.23926
 33
        3.04785
999
MAIN_ZONE_E_F_K_J:MAIN_EXTWALL_E_F
  0
3DFACE
  8
MAIN_ZONE_E_F_K_J
 62
 43
 10
       30.47851
 20
        0.00000
 30
        3.04785
 11
       30.47851
 21
        0.00000
 31
        0.00000
 12
       30.47851
 22
       15.23926
 32
        0.00000
 13
       30.47851
 23
       15.23926
 33
        3.04785
999
MAIN_ZONE_E_F_K_J:MAIN_WINDOW_E_F_1_1
  0
3DFACE
  8
MAIN_ZONE_E_F_K_J
 62
143
 10
       30.47851
 20
       12.00853
 30
        2.28589
 11
       30.47851
 21
       12.00853
 31
        0.76196
 12
       30.47851
 22
       12.92289
 32
        0.76196
 13
       30.47851
 23
       12.92289
 33
        2.28589
999
MAIN_ZONE_E_F_K_J:MAIN_WINDOW_E_F_1_2
  0
3DFACE
  8
MAIN_ZONE_E_F_K_J
 62
143
 10
       30.47851
 20
        8.77781
 30
        2.28589
 11
       30.47851
 21
        8.77781
 31
        0.76196
 12
       30.47851
 22
        9.69217
 32
        0.76196
 13
       30.47851
 23
        9.69217
 33
        2.28589
999
MAIN_ZONE_E_F_K_J:MAIN_WINDOW_E_F_1_3
  0
3DFACE
  8
MAIN_ZONE_E_F_K_J
 62
143
 10
       30.47851
 20
        5.54709
 30
        2.28589
 11
       30.47851
 21
        5.54709
 31
        0.76196
 12
       30.47851
 22
        6.46145
 32
        0.76196
 13
       30.47851
 23
        6.46145
 33
        2.28589
999
MAIN_ZONE_E_F_K_J:MAIN_WINDOW_E_F_1_4
  0
3DFACE
  8
MAIN_ZONE_E_F_K_J
 62
143
 10
       30.47851
 20
        2.31637
 30
        2.28589
 11
       30.47851
 21
        2.31637
 31
        0.76196
 12
       30.47851
 22
        3.23072
 32
        0.76196
 13
       30.47851
 23
        3.23072
 33
        2.28589
999
MAIN_ZONE_E_F_K_J:MAIN_INTWALL_J_K
  0
3DFACE
  8
MAIN_ZONE_E_F_K_J
 62
 43
 10
       25.90674
 20
        4.57178
 30
        3.04785
 11
       25.90674
 21
        4.57178
 31
        0.00000
 12
       25.90674
 22
       10.66748
 32
        0.00000
 13
       25.90674
 23
       10.66748
 33
        3.04785
999
MAIN_ZONE_E_F_K_J:FOUNDATION_MAIN_ZONE_E_F_K_J
  0
3DFACE
  8
MAIN_ZONE_E_F_K_J
 62
  8
 10
       30.47851
 20
       15.23926
 30
        0.00000
 11
       30.47851
 21
        0.00000
 31
        0.00000
 12
       25.90674
 22
        4.57178
 32
        0.00000
 13
       25.90674
 23
       10.66748
 33
        0.00000
999
MAIN_ZONE_E_F_K_J:ROOFABOVE_MAIN_ZONE_E_F_K_J
  0
3DFACE
  8
MAIN_ZONE_E_F_K_J
 62
 15
 10
       25.90674
 20
       10.66748
 30
        3.04785
 11
       25.90674
 21
        4.57178
 31
        3.04785
 12
       30.47851
 22
        0.00000
 32
        3.04785
 13
       30.47851
 23
       15.23926
 33
        3.04785
999
MAIN_ZONE_L_K_F_A:MAIN_EXTWALL_F_A
  0
3DFACE
  8
MAIN_ZONE_L_K_F_A
 62
 43
 10
        0.00000
 20
        0.00000
 30
        3.04785
 11
        0.00000
 21
        0.00000
 31
        0.00000
 12
       30.47851
 22
        0.00000
 32
        0.00000
 13
       30.47851
 23
        0.00000
 33
        3.04785
999
MAIN_ZONE_L_K_F_A:MAIN_WINDOW_F_A_1_1
  0
3DFACE
  8
MAIN_ZONE_L_K_F_A
 62
143
 10
       20.01423
 20
        0.00000
 30
        2.28589
 11
       20.01423
 21
        0.00000
 31
        0.76196
 12
       20.92858
 22
        0.00000
 32
        0.76196
 13
       20.92858
 23
        0.00000
 33
        2.28589
999
MAIN_ZONE_L_K_F_A:MAIN_WINDOW_F_A_1_2
  0
3DFACE
  8
MAIN_ZONE_L_K_F_A
 62
143
 10
        9.54993
 20
        0.00000
 30
        2.28589
 11
        9.54993
 21
        0.00000
 31
        0.76196
 12
       10.46429
 22
        0.00000
 32
        0.76196
 13
       10.46429
 23
        0.00000
 33
        2.28589
999
MAIN_ZONE_L_K_F_A:MAIN_INTWALL_K_L
  0
3DFACE
  8
MAIN_ZONE_L_K_F_A
 62
 43
 10
        4.57178
 20
        4.57178
 30
        3.04785
 11
        4.57178
 21
        4.57178
 31
        0.00000
 12
       25.90674
 22
        4.57178
 32
        0.00000
 13
       25.90674
 23
        4.57178
 33
        3.04785
999
MAIN_ZONE_L_K_F_A:FOUNDATION_MAIN_ZONE_L_K_F_A
  0
3DFACE
  8
MAIN_ZONE_L_K_F_A
 62
  8
 10
        4.57178
 20
        4.57178
 30
        0.00000
 11
       25.90674
 21
        4.57178
 31
        0.00000
 12
       30.47851
 22
        0.00000
 32
        0.00000
 13
        0.00000
 23
        0.00000
 33
        0.00000
999
MAIN_ZONE_L_K_F_A:ROOFABOVE_MAIN_ZONE_L_K_F_A
  0
3DFACE
  8
MAIN_ZONE_L_K_F_A
 62
 15
 10
        0.00000
 20
        0.00000
 30
        3.04785
 11
       30.47851
 21
        0.00000
 31
        3.04785
 12
       25.90674
 22
        4.57178
 32
        3.04785
 13
        4.57178
 23
        4.57178
 33
        3.04785
999
MAIN_ZONE_G_H_I_L:MAIN_INTWALL_G_H_MIRROR
  0
3DFACE
  8
MAIN_ZONE_G_H_I_L
 62
 43
 10
        4.57178
 20
       44.19384
 30
        3.04785
 11
        4.57178
 21
       44.19384
 31
        0.00000
 12
       10.66748
 22
       44.19384
 32
        0.00000
 13
       10.66748
 23
       44.19384
 33
        3.04785
999
MAIN_ZONE_G_H_I_L:MAIN_INTWALL_H_I_MIRROR
  0
3DFACE
  8
MAIN_ZONE_G_H_I_L
 62
 43
 10
       10.66748
 20
       44.19384
 30
        3.04785
 11
       10.66748
 21
       44.19384
 31
        0.00000
 12
       10.66748
 22
       10.66748
 32
        0.00000
 13
       10.66748
 23
       10.66748
 33
        3.04785
999
MAIN_ZONE_G_H_I_L:MAIN_INTWALL_L_G_MIRROR
  0
3DFACE
  8
MAIN_ZONE_G_H_I_L
 62
 43
 10
        4.57178
 20
        4.57178
 30
        3.04785
 11
        4.57178
 21
        4.57178
 31
        0.00000
 12
        4.57178
 22
       44.19384
 32
        0.00000
 13
        4.57178
 23
       44.19384
 33
        3.04785
999
MAIN_ZONE_G_H_I_L:MAIN_INTWALL_L_I
  0
3DFACE
  8
MAIN_ZONE_G_H_I_L
 62
 43
 10
       10.66748
 20
       10.66748
 30
        3.04785
 11
       10.66748
 21
       10.66748
 31
        0.00000
 12
        4.57178
 22
        4.57178
 32
        0.00000
 13
        4.57178
 23
        4.57178
 33
        3.04785
999
MAIN_ZONE_G_H_I_L:FOUNDATION_MAIN_ZONE_G_H_I_L
  0
3DFACE
  8
MAIN_ZONE_G_H_I_L
 62
  8
 10
        4.57178
 20
       44.19384
 30
        0.00000
 11
       10.66748
 21
       44.19384
 31
        0.00000
 12
       10.66748
 22
       10.66748
 32
        0.00000
 13
        4.57178
 23
        4.57178
 33
        0.00000
999
MAIN_ZONE_G_H_I_L:ROOFABOVE_MAIN_ZONE_G_H_I_L
  0
3DFACE
  8
MAIN_ZONE_G_H_I_L
 62
 15
 10
        4.57178
 20
        4.57178
 30
        3.04785
 11
       10.66748
 21
       10.66748
 31
        3.04785
 12
       10.66748
 22
       44.19384
 32
        3.04785
 13
        4.57178
 23
       44.19384
 33
        3.04785
999
MAIN_ZONE_I_J_K_L:MAIN_INTWALL_I_J_MIRROR
  0
3DFACE
  8
MAIN_ZONE_I_J_K_L
 62
 43
 10
       10.66748
 20
       10.66748
 30
        3.04785
 11
       10.66748
 21
       10.66748
 31
        0.00000
 12
       25.90674
 22
       10.66748
 32
        0.00000
 13
       25.90674
 23
       10.66748
 33
        3.04785
999
MAIN_ZONE_I_J_K_L:MAIN_INTWALL_J_K_MIRROR
  0
3DFACE
  8
MAIN_ZONE_I_J_K_L
 62
 43
 10
       25.90674
 20
       10.66748
 30
        3.04785
 11
       25.90674
 21
       10.66748
 31
        0.00000
 12
       25.90674
 22
        4.57178
 32
        0.00000
 13
       25.90674
 23
        4.57178
 33
        3.04785
999
MAIN_ZONE_I_J_K_L:MAIN_INTWALL_K_L_MIRROR
  0
3DFACE
  8
MAIN_ZONE_I_J_K_L
 62
 43
 10
       25.90674
 20
        4.57178
 30
        3.04785
 11
       25.90674
 21
        4.57178
 31
        0.00000
 12
        4.57178
 22
        4.57178
 32
        0.00000
 13
        4.57178
 23
        4.57178
 33
        3.04785
999
MAIN_ZONE_I_J_K_L:MAIN_INTWALL_L_I_MIRROR
  0
3DFACE
  8
MAIN_ZONE_I_J_K_L
 62
 43
 10
        4.57178
 20
        4.57178
 30
        3.04785
 11
        4.57178
 21
        4.57178
 31
        0.00000
 12
       10.66748
 22
       10.66748
 32
        0.00000
 13
       10.66748
 23
       10.66748
 33
        3.04785
999
MAIN_ZONE_I_J_K_L:FOUNDATION_MAIN_ZONE_I_J_K_L
  0
3DFACE
  8
MAIN_ZONE_I_J_K_L
 62
  8
 10
       10.66748
 20
       10.66748
 30
        0.00000
 11
       25.90674
 21
       10.66748
 31
        0.00000
 12
       25.90674
 22
        4.57178
 32
        0.00000
 13
        4.57178
 23
        4.57178
 33
        0.00000
999
MAIN_ZONE_I_J_K_L:ROOFABOVE_MAIN_ZONE_I_J_K_L
  0
3DFACE
  8
MAIN_ZONE_I_J_K_L
 62
 15
 10
        4.57178
 20
        4.57178
 30
        3.04785
 11
       25.90674
 21
        4.57178
 31
        3.04785
 12
       25.90674
 22
       10.66748
 32
        3.04785
 13
       10.66748
 23
       10.66748
 33
        3.04785
  0
ENDSEC
  0
EOF
